Distribution/8500Node/DSSfiles/Master.dss
// Master file for 8500-Node IEEE Test Feeder Case
// Balanced Load Case

Clear

New Circuit.8500Node bus1=8500Node pu=1.01 basekV=138 r1=0  x1=0.001  r0=0  x0=0.001  


! Make the source stiff with small impedance

Redirect  LineCodes2.dss
Redirect  Triplex_Linecodes.dss

Redirect  Lines.dss
Redirect  Transformers.dss
Redirect  LoadXfmrs.dss    ! Load Transformers
Redirect  Triplex_Lines.dss
Redirect  Loads.dss     ! Balanced Loads
Redirect  Capacitors.dss
Redirect  CapControls.dss
Redirect  Regulators.dss

! Let DSS estimate the voltage bases
Set voltagebases=[138, 12.47,  0.48, 0.208]
Calcvoltagebases     ! This also establishes the bus list

! Load in bus coordintes now that bus list is established
Buscoords  Buscoords.dss

Set Maxiterations=20 mode=yearly
solve
!show losses
!show voltage ln nodes